LAMMPS (2 Aug 2023)
# This LAMMPS input script simulates LJ particles in a 2D box
# Written by Simon Gravelle (https://simongravelle.github.io/)
# Find more scripts here: https://github.com/simongravelle/lammps-input-files
# LAMMPS tutorials for beginners: https://lammpstutorials.github.io/

units lj
dimension 2
atom_style atomic
pair_style lj/cut 2.5
boundary p p p

region myreg block -30 30 -30 30 -0.5 0.5
create_box 2 myreg
Created orthogonal box = (-30 -30 -0.5) to (30 30 0.5)
create_atoms 1 random 1500 341341 myreg
Created 1500 atoms
create_atoms 2 random 100 127569 myreg
Created 100 atoms

include parm.lammps

# atom settings
mass 1 1
mass 2 1
pair_coeff 1 1 1.0 1.0
pair_coeff 2 2 0.5 3.0
neigh_modify every 1 delay 5 check yes

minimize 1.0e-4 1.0e-6 1000 10000
Generated 1 of 1 mixed pair_coeff terms from geometric mixing rule
Step          Temp          E_pair         E_mol          TotEng         Press
0   0              5.8997404e+14  0              5.8997404e+14  1.5732641e+15
Loop time of 144.98 on 1 procs for 81 steps with 1600 atoms

Minimization stats:
  Stopping criterion = energy tolerance
  Energy initial, next-to-last, final =
  Force two-norm initial, final = 2.5817498e+20 60.584174
  Force max component initial, final = 1.5160091e+20 11.519543
  Final line search alpha, max atom move = 6.6931485e-05 0.00077102009
  Iterations, force evaluations = 81 197

reset_timestep 0

fix mynve all nve
fix mylgv all langevin 1.0 1.0 0.1 1530917
fix myefn all enforce2d
timestep 0.005

thermo 1000
dump mydmp all atom 1000 dump.lammpstrj

run 20000
Generated 1 of 1 mixed pair_coeff terms from geometric mixing rule
Step          Temp          E_pair         E_mol          TotEng         Press
0   0             -1.7518285      0             -1.7518285     -0.15730928
Averages over the last 11 of 21 rows, steps 10000 to 20000:
Temp E_pair E_mol TotEng Press
1.00171 -1.3186 0 -0.317516 0.759976
Loop time of 9973.81 on 1 procs for 20000 steps with 1600 atoms
